/*--------------------------------*- C++ -*----------------------------------*\
| =========                 |                                                 |
| \\      /  F ield         | OpenFOAM: The Open Source CFD Toolbox           |
|  \\    /   O peration     | Version:  v2012                                 |
|   \\  /    A nd           | Website:  www.openfoam.com                      |
|    \\/     M anipulation  |                                                 |
\*---------------------------------------------------------------------------*/
FoamFile
{
    version     2.0;
    format      ascii;
    class       volScalarField;
    object      p;
}
// * * * * * * * * * * * * * * * * * * * * * * * * * * * * * * * * * * * * * //

dimensions      [0 2 -2 0 0 0 0];

internalField   uniform 0;

boundaryField
{
    movingWall
    {
        type            fixedValue;
        value           uniform 0; // Set pressure at moving wall to 0 (or any other desired value)
    }

    fixedWalls
    {
        type            zeroGradient;
    }

    vortex1
    {
        type            fixedValue;
        value           uniform 0; // Set pressure at vortex 1 to 0 (or any other desired value)
    }

    vortex2
    {
        type            fixedValue;
        value           uniform 0; // Set pressure at vortex 2 to 0 (or any other desired value)
    }

    frontAndBack
    {
        type            empty;
    }
}

// ************************************************************************* //
